
This summary information was generated by ElastoDyn on 24-Feb-2023 at 18:40:52.


Turbine features:

            Upwind, 1-bladed rotor with rigid hub.
            The model has 0 of 18 DOFs active (enabled) at start-up.
 Disabled   Platform horizontal surge translation DOF 
 Disabled   Platform horizontal sway translation DOF 
 Disabled   Platform vertical heave translation DOF 
 Disabled   Platform roll tilt rotation DOF 
 Disabled   Platform pitch tilt rotation DOF 
 Disabled   Platform yaw rotation DOF 
 Disabled   1st tower fore-aft bending mode DOF 
 Disabled   1st tower side-to-side bending mode DOF 
 Disabled   2nd tower fore-aft bending mode DOF 
 Disabled   2nd tower side-to-side bending mode DOF 
 Disabled   Nacelle yaw DOF 
 Disabled   Rotor-furl DOF 
 Disabled   Variable speed generator DOF 
 Disabled   Drivetrain rotational-flexibility DOF 
 Disabled   Tail-furl DOF 
 Disabled   1st flapwise bending-mode DOF of blade 1 
 Disabled   1st edgewise bending-mode DOF of blade 1 
 Disabled   2nd flapwise bending-mode DOF of blade 1 


Time steps:

    Structural            (s)        0.00070000


Some calculated parameters:

    Hub-Height            (m)             0.000
    Flexible Tower Length (m)             0.000
    Flexible Blade Length (m)               N/A


Rotor mass properties:

    Rotor Mass            (kg)            0.000
    Rotor Inertia         (kg-m^2)        0.000
                                        Blade 1
                                        -------
    Mass                  (kg)              N/A
    Second Mass Moment    (kg-m^2)          N/A
    First Mass Moment     (kg-m)            N/A
    Center of Mass        (m)               N/A


Additional mass properties:

    Tower-top Mass        (kg)            0.000
    Tower Mass            (kg)            0.000
    Platform Mass         (kg)            0.000
    Mass Incl. Platform   (kg)            0.000


Interpolated tower properties:

Node  TwFract   HNodes  DHNodes  TMassDen    FAStiff    SSStiff
 (-)      (-)      (m)      (m)    (kg/m)     (Nm^2)     (Nm^2)
   1    0.025    0.000    0.000     0.010  3.097E+12  3.097E+12
   2    0.075    0.000    0.000     0.010  3.016E+12  3.016E+12
   3    0.125    0.000    0.000     0.010  2.894E+12  2.894E+12
   4    0.175    0.000    0.000     0.009  2.759E+12  2.759E+12
   5    0.225    0.000    0.000     0.009  2.594E+12  2.594E+12
   6    0.275    0.000    0.000     0.008  2.337E+12  2.337E+12
   7    0.325    0.000    0.000     0.008  2.119E+12  2.119E+12
   8    0.375    0.000    0.000     0.008  1.885E+12  1.885E+12
   9    0.425    0.000    0.000     0.007  1.672E+12  1.672E+12
  10    0.475    0.000    0.000     0.007  1.461E+12  1.461E+12
  11    0.525    0.000    0.000     0.006  1.268E+12  1.268E+12
  12    0.575    0.000    0.000     0.006  1.081E+12  1.081E+12
  13    0.625    0.000    0.000     0.006  9.099E+11  9.099E+11
  14    0.675    0.000    0.000     0.005  7.950E+11  7.950E+11
  15    0.725    0.000    0.000     0.005  6.862E+11  6.862E+11
  16    0.775    0.000    0.000     0.004  6.134E+11  6.134E+11
  17    0.825    0.000    0.000     0.004  5.569E+11  5.569E+11
  18    0.875    0.000    0.000     0.004  5.024E+11  5.024E+11
  19    0.925    0.000    0.000     0.004  4.871E+11  4.871E+11
  20    0.975    0.000    0.000     0.004  5.076E+11  5.076E+11


Requested Outputs:


 Col   Parameter            Units               
 ---   ---------------      ---------------     
   0   Time                 (s)                 
   1   Azimuth              (deg)               
   2   BldPitch1            (deg)               
   3   BldPitch2            INVALID             
   4   BldPitch3            INVALID             
   5   GenSpeed             (rpm)               
   6   IPDefl1              INVALID             
   7   LSSGagMya            (kN-m)              
   8   LSSGagMza            (kN-m)              
   9   LSSTipMys            (kN-m)              
  10   LSSTipMzs            (kN-m)              
  11   LSShftFys            (kN)                
  12   LSShftFzs            (kN)                
  13   NacYaw               (deg)               
  14   NcIMUTAxs            (m/s^2)             
  15   NcIMUTAys            (m/s^2)             
  16   NcIMUTAzs            (m/s^2)             
  17   OoPDefl1             INVALID             
  18   PtfmHeave            (m)                 
  19   PtfmPitch            (deg)               
  20   PtfmRoll             (deg)               
  21   PtfmSurge            (m)                 
  22   PtfmSway             (m)                 
  23   PtfmYaw              (deg)               
  24   RootFxb1             INVALID             
  25   RootFxb2             INVALID             
  26   RootFxb3             INVALID             
  27   RootFxc1             INVALID             
  28   RootFxc2             INVALID             
  29   RootFxc3             INVALID             
  30   RootFyb1             INVALID             
  31   RootFyb2             INVALID             
  32   RootFyb3             INVALID             
  33   RootFyc1             INVALID             
  34   RootFyc2             INVALID             
  35   RootFyc3             INVALID             
  36   RootFzb1             INVALID             
  37   RootFzb2             INVALID             
  38   RootFzb3             INVALID             
  39   RootFzc1             INVALID             
  40   RootFzc2             INVALID             
  41   RootFzc3             INVALID             
  42   RootMxb1             INVALID             
  43   RootMxb2             INVALID             
  44   RootMxb3             INVALID             
  45   RootMxc1             INVALID             
  46   RootMxc2             INVALID             
  47   RootMxc3             INVALID             
  48   RootMyb1             INVALID             
  49   RootMyb2             INVALID             
  50   RootMyb3             INVALID             
  51   RootMyc1             INVALID             
  52   RootMyc2             INVALID             
  53   RootMyc3             INVALID             
  54   RootMzb1             INVALID             
  55   RootMzb2             INVALID             
  56   RootMzb3             INVALID             
  57   RootMzc1             INVALID             
  58   RootMzc2             INVALID             
  59   RootMzc3             INVALID             
  60   RotSpeed             (rpm)               
  61   RotThrust            (kN)                
  62   RotTorq              (kN-m)              
  63   Spn1MLxb1            INVALID             
  64   Spn1MLyb1            INVALID             
  65   Spn2MLxb1            INVALID             
  66   Spn2MLyb1            INVALID             
  67   Spn3MLxb1            INVALID             
  68   Spn3MLyb1            INVALID             
  69   Spn4MLxb1            INVALID             
  70   Spn4MLyb1            INVALID             
  71   Spn5MLxb1            INVALID             
  72   Spn5MLyb1            INVALID             
  73   Spn6MLxb1            INVALID             
  74   Spn6MLyb1            INVALID             
  75   Spn7MLxb1            INVALID             
  76   Spn7MLyb1            INVALID             
  77   Spn8MLxb1            INVALID             
  78   Spn8MLyb1            INVALID             
  79   Spn9MLxb1            INVALID             
  80   Spn9MLyb1            INVALID             
  81   TTDspTwst            (deg)               
  82   TipDxb1              INVALID             
  83   TipDxb2              INVALID             
  84   TipDxb3              INVALID             
  85   TipDxc1              INVALID             
  86   TipDxc2              INVALID             
  87   TipDxc3              INVALID             
  88   TipDyb1              INVALID             
  89   TipDyb2              INVALID             
  90   TipDyb3              INVALID             
  91   TipDyc1              INVALID             
  92   TipDyc2              INVALID             
  93   TipDyc3              INVALID             
  94   TipDzb1              INVALID             
  95   TipDzb2              INVALID             
  96   TipDzb3              INVALID             
  97   TipDzc1              INVALID             
  98   TipDzc2              INVALID             
  99   TipDzc3              INVALID             
 100   TwHt1TPxi            (m)                 
 101   TwHt1TPyi            (m)                 
 102   TwrBsFxt             (kN)                
 103   TwrBsFyt             (kN)                
 104   TwrBsFzt             (kN)                
 105   TwrBsMxt             (kN-m)              
 106   TwrBsMyt             (kN-m)              
 107   TwrBsMzt             (kN-m)              
 108   TwstDefl1            INVALID             
 109   YawBrFxp             (kN)                
 110   YawBrFyp             (kN)                
 111   YawBrFzp             (kN)                
 112   YawBrMxp             (kN-m)              
 113   YawBrMyp             (kN-m)              
 114   YawBrMzp             (kN-m)              
 115   YawBrTDxt            (m)                 
 116   YawBrTDyt            (m)                 
